
Note: No compatibility mode selected!


Circuit: test opamp tran

Doing analysis at TEMP = 27.000000 and TNOM = 27.000000

Using SPARSE 1.3 as Direct Linear Solver
Note: Starting dynamic gmin stepping
Note: Dynamic gmin stepping completed

Initial Transient Solution
--------------------------

Node                                   Voltage
----                                   -------
vdd                                        1.8
vss                                          0
ib                                    0.755294
gnda                               4.40783e-06
visr                                       0.3
vout3                                  0.29996
x1.net050                             0.781403
x1.net049                             0.924079
x1.net043                             0.528084
x1.voutn                              0.841277
x1.net063                            0.0908545
x1.net31                               1.18735
x1.dm_2                              0.0912245
x1.vb3                                0.550143
x1.dm_1                               0.501236
x1.vb4                                0.501236
x1.net54                             0.0484399
x1.net56                             0.0484399
x1.xc0.a                               0.29996
x1.xc0.b1                              0.29996
x1.xc1.a                               0.29996
x1.xc1.b1                              0.29996
vvisr#branch                                 0
v2#branch                          0.000105746
v1#branch                         -0.000110154


No. of Data Rows : 469
t_rise_edge         =  1.174154e-06
t_rise = 1.741540e-07
sr_rise = 5.742044e+05
t_fall_edge         =  2.012131e-04
t_fall = 2.131000e-07
sr_fall = 4.692633e+05

Warning: command 'plot' is not available during batch simulation, ignored!
    You may use Gnuplot instead.

ASCII raw file "tran.dat"
Doing analysis at TEMP = 27.000000 and TNOM = 27.000000

Using SPARSE 1.3 as Direct Linear Solver
Note: Starting dynamic gmin stepping
Note: Dynamic gmin stepping completed

No. of Data Rows : 1
ASCII raw file "AMP_NMCF_op"
Note: Simulation executed from .control section 
